/*--------------------------------*- C++ -*----------------------------------*\
| =========                 |                                                 |
| \\      /  F ield         | OpenFOAM: The Open Source CFD Toolbox           |
|  \\    /   O peration     | Version:  2406                                  |
|   \\  /    A nd           | Website:  www.openfoam.com                      |
|    \\/     M anipulation  |                                                 |
\*---------------------------------------------------------------------------*/
FoamFile
{
    version     2.0;
    format      ascii;
    arch        "LSB;label=32;scalar=64";
    class       polyBoundaryMesh;
    location    "constant/polyMesh";
    object      boundary;
}
// * * * * * * * * * * * * * * * * * * * * * * * * * * * * * * * * * * * * * //


5
(
    farfield
    {
        type            patch;
        inGroups        1 ( farfieldgroup );
        nFaces          100;
        startFace       167561;
    }

    wall_slat
    {
        type            wall;
        inGroups        1 ( wall );
        nFaces          210;
        startFace       167661;
    }

    wall_airfoil
    {
        type            wall;
        inGroups        1 ( wall );
        nFaces          510;
        startFace       167871;
    }

    wall_flap
    {
        type            wall;
        inGroups        1 ( wall );
        nFaces          290;
        startFace       168381;
    }

    frontAndBackPlanes
    {
        type            empty;
        inGroups        1 ( empty );
        nFaces          200588;
        startFace       168671;
    }

)


// ************************************************************************* //
